10
Coordinates from ORCA-job orcajob E -192.623884207367
C      0.25807    1.30400    0.69465
C      0.00000    2.60787   -0.00000
H      0.37518    2.55001   -1.03489
H      0.50633    3.44077    0.51854
H     -1.08779    2.85199   -0.03098
C      0.00000    0.00000    0.00000
H     -1.08765   -0.24496   -0.02964
H      0.50747   -0.83306    0.51719
H      0.37369    0.05820   -1.03544
O      0.03413    1.30455    1.97711
