10
Coordinates from ORCA-job orcajob E -192.623884207367
C          0.00000        0.00000        0.00000
C         -0.37403        1.30404       -0.63935
H         -0.18244        1.24668       -1.72338
H          0.21375        2.13691       -0.21529
H         -1.45099        1.54784       -0.48266
C         -0.37341       -1.30382       -0.64045
H         -1.44988       -1.54911       -0.48266
H          0.21566       -2.13693       -0.21861
H         -0.18341       -1.24513       -1.72471
O          0.00000       -0.00000        1.30187
